RDN_Eindhoven_representative_feeders/RDN4_2562_openDSS.dss
clear
New Circuit.RDN1 basekv=10 pu=1.0
edit Vsource.Source bus1=source basekv=10 pu=1.0001 phases=3 ISC3=9000  ISC1=5000
edit Vsource.Source bus1=source basekv=10 pu=1.0001 phases=3 ISC3=9000  ISC1=5000
! Transformer data 
new transformer.12 buses = [Source.1.2.3.0 2562.1.2.3.0] phases=3 windings=2 XHL = 4.0 %LoadLoss=1.0794 Conns=[WYE WYE] kVs=[10.0 0.4] kVAs=[630000.0 630000.0] 
new transformer.42 buses = [Source.1.2.3.0 2562.1.2.3.0] phases=3 windings=2 XHL = 4.0 %LoadLoss=1.0794 Conns=[WYE WYE] kVs=[10.0 0.4] kVAs=[630000.0 630000.0] 
! Linecodes data 
new linecode.powersystem_db_lv_NAYY_4x50_SE nphases=3 
~ rmatrix = [0.642 | 0.0 0.642 | 0.0 0.0 0.642] 
~ xmatrix = [0.083 | 0.0 0.083 | 0.0 0.0 0.083] 
~ cmatrix = [210.0 | 0.0 210.0 | 0.0 0.0 210.0] 
new linecode.powersystem_db_mv_NA2XS2Y_1x120_RM/25_6/10_kV nphases=3 
~ rmatrix = [0.253 | 0.0 0.253 | 0.0 0.0 0.253] 
~ xmatrix = [0.113 | 0.0 0.113 | 0.0 0.0 0.113] 
~ cmatrix = [340.0 | 0.0 340.0 | 0.0 0.0 340.0] 
new linecode.powersystem_db_mv_NA2XS2Y_1x185_RM/25_6/10_kV nphases=3 
~ rmatrix = [0.161 | 0.0 0.161 | 0.0 0.0 0.161] 
~ xmatrix = [0.11 | 0.0 0.11 | 0.0 0.0 0.11] 
~ cmatrix = [406.0 | 0.0 406.0 | 0.0 0.0 406.0] 
new linecode.powersystem_db_lv_NAYY_4x120_SE nphases=3 
~ rmatrix = [0.225 | 0.0 0.225 | 0.0 0.0 0.225] 
~ xmatrix = [0.08 | 0.0 0.08 | 0.0 0.0 0.08] 
~ cmatrix = [264.0 | 0.0 264.0 | 0.0 0.0 264.0] 
new linecode.powersystem_db_mv_NA2XS2Y_1x240_RM/25_6/10_kV nphases=3 
~ rmatrix = [0.122 | 0.0 0.122 | 0.0 0.0 0.122] 
~ xmatrix = [0.105 | 0.0 0.105 | 0.0 0.0 0.105] 
~ cmatrix = [456.0 | 0.0 456.0 | 0.0 0.0 456.0] 
new linecode.powersystem_db_lv_NAYY_4x150_SE nphases=3 
~ rmatrix = [0.208 | 0.0 0.208 | 0.0 0.0 0.208] 
~ xmatrix = [0.08 | 0.0 0.08 | 0.0 0.0 0.08] 
~ cmatrix = [261.0 | 0.0 261.0 | 0.0 0.0 261.0] 
new linecode.powersystem_db_mv_NA2XS2Y_1x95_RM/25_6/10_kV nphases=3 
~ rmatrix = [0.313 | 0.0 0.313 | 0.0 0.0 0.313] 
~ xmatrix = [0.123 | 0.0 0.123 | 0.0 0.0 0.123] 
~ cmatrix = [315.0 | 0.0 315.0 | 0.0 0.0 315.0] 
new linecode.powersystem_db_lv_NA2XY_4x240_SE nphases=3 
~ rmatrix = [0.125 | 0.0 0.125 | 0.0 0.0 0.125] 
~ xmatrix = [0.079 | 0.0 0.079 | 0.0 0.0 0.079] 
~ cmatrix = [0.0 | 0.0 0.0 | 0.0 0.0 0.0] 
new linecode.powersystem_db_mv_NA2XS2Y_1x70_RM/25_6/10_kV nphases=3 
~ rmatrix = [0.443 | 0.0 0.443 | 0.0 0.0 0.443] 
~ xmatrix = [0.123 | 0.0 0.123 | 0.0 0.0 0.123] 
~ cmatrix = [280.0 | 0.0 280.0 | 0.0 0.0 280.0] 
! Lines data 
new line.1107 bus1=1542.1.2.3 bus2=1243.1.2.3  phases=3 linecode=powersystem_db_lv_NAYY_4x150_SE length = 0.002957926  
new line.1144 bus1=1582.1.2.3 bus2=583.1.2.3  phases=3 linecode=powersystem_db_lv_NAYY_4x50_SE length = 0.015002732  
new line.2494 bus1=1928.1.2.3 bus2=2511.1.2.3  phases=3 linecode=powersystem_db_lv_NAYY_4x50_SE length = 0.006610027  
new line.2108 bus1=340.1.2.3 bus2=2289.1.2.3  phases=3 linecode=powersystem_db_lv_NAYY_4x50_SE length = 0.023434005  
new line.719 bus1=802.1.2.3 bus2=1037.1.2.3  phases=3 linecode=powersystem_db_lv_NA2XY_4x240_SE length = 0.006680264  
new line.2392 bus1=2453.1.2.3 bus2=1935.1.2.3  phases=3 linecode=powersystem_db_lv_NA2XY_4x240_SE length = 0.005238272  
new line.858 bus1=991.1.2.3 bus2=1250.1.2.3  phases=3 linecode=powersystem_db_lv_NA2XY_4x240_SE length = 0.006091586  
new line.2350 bus1=2429.1.2.3 bus2=2251.1.2.3  phases=3 linecode=powersystem_db_lv_NA2XY_4x240_SE length = 0.001518098  
new line.2802 bus1=1583.1.2.3 bus2=891.1.2.3  phases=3 linecode=powersystem_db_lv_NAYY_4x50_SE length = 0.007957472  
new line.2780 bus1=2294.1.2.3 bus2=1907.1.2.3  phases=3 linecode=powersystem_db_lv_NAYY_4x50_SE length = 0.013435813  
new line.3042 bus1=2246.1.2.3 bus2=1617.1.2.3  phases=3 linecode=powersystem_db_lv_NAYY_4x50_SE length = 0.022485934  
new line.73 bus1=527.1.2.3 bus2=165.1.2.3  phases=3 linecode=powersystem_db_lv_NAYY_4x50_SE length = 0.000921499  
new line.3082 bus1=2562.1.2.3 bus2=249.1.2.3  phases=3 linecode=powersystem_db_lv_NAYY_4x150_SE length = 0.001685724  
new line.1743 bus1=2050.1.2.3 bus2=89.1.2.3  phases=3 linecode=powersystem_db_lv_NAYY_4x50_SE length = 0.001918815  
new line.1077 bus1=1507.1.2.3 bus2=1366.1.2.3  phases=3 linecode=powersystem_db_lv_NAYY_4x50_SE length = 0.012511118  
new line.3006 bus1=1014.1.2.3 bus2=2093.1.2.3  phases=3 linecode=powersystem_db_lv_NAYY_4x50_SE length = 0.006149432  
new line.1293 bus1=1714.1.2.3 bus2=1047.1.2.3  phases=3 linecode=powersystem_db_lv_NAYY_4x50_SE length = 0.002727601  
new line.665 bus1=923.1.2.3 bus2=92.1.2.3  phases=3 linecode=powersystem_db_lv_NAYY_4x120_SE length = 0.01244887  
new line.86 bus1=352.1.2.3 bus2=384.1.2.3  phases=3 linecode=powersystem_db_lv_NA2XY_4x240_SE length = 0.007977042  
new line.544 bus1=627.1.2.3 bus2=733.1.2.3  phases=3 linecode=powersystem_db_lv_NAYY_4x50_SE length = 0.102286825  
new line.2781 bus1=2295.1.2.3 bus2=2294.1.2.3  phases=3 linecode=powersystem_db_lv_NAYY_4x50_SE length = 0.006599512  
new line.1253 bus1=1346.1.2.3 bus2=1675.1.2.3  phases=3 linecode=powersystem_db_lv_NAYY_4x50_SE length = 0.005134468  
new line.1266 bus1=1684.1.2.3 bus2=1346.1.2.3  phases=3 linecode=powersystem_db_lv_NAYY_4x50_SE length = 0.036734  
new line.2390 bus1=2191.1.2.3 bus2=2452.1.2.3  phases=3 linecode=powersystem_db_lv_NAYY_4x150_SE length = 0.007008531  
new line.2934 bus1=816.1.2.3 bus2=1929.1.2.3  phases=3 linecode=powersystem_db_lv_NAYY_4x50_SE length = 0.006577755  
new line.1932 bus1=2176.1.2.3 bus2=880.1.2.3  phases=3 linecode=powersystem_db_lv_NAYY_4x50_SE length = 0.004776915  
new line.2057 bus1=144.1.2.3 bus2=2257.1.2.3  phases=3 linecode=powersystem_db_lv_NAYY_4x50_SE length = 0.013499771  
new line.2076 bus1=1941.1.2.3 bus2=2267.1.2.3  phases=3 linecode=powersystem_db_lv_NAYY_4x50_SE length = 0.007393118  
new line.75 bus1=687.1.2.3 bus2=108.1.2.3  phases=3 linecode=powersystem_db_lv_NAYY_4x50_SE length = 0.090703759  
new line.1874 bus1=1250.1.2.3 bus2=2139.1.2.3  phases=3 linecode=powersystem_db_lv_NA2XY_4x240_SE length = 0.005986995  
new line.2859 bus1=1736.1.2.3 bus2=402.1.2.3  phases=3 linecode=powersystem_db_lv_NAYY_4x120_SE length = 0.011497789  
new line.637 bus1=527.1.2.3 bus2=865.1.2.3  phases=3 linecode=powersystem_db_lv_NAYY_4x50_SE length = 0.053115589  
new line.2884 bus1=472.1.2.3 bus2=527.1.2.3  phases=3 linecode=powersystem_db_lv_NAYY_4x150_SE length = 0.008473912  
new line.2011 bus1=2224.1.2.3 bus2=1427.1.2.3  phases=3 linecode=powersystem_db_lv_NAYY_4x150_SE length = 0.021498526  
new line.82 bus1=731.1.2.3 bus2=264.1.2.3  phases=3 linecode=powersystem_db_lv_NAYY_4x50_SE length = 0.001265079  
new line.2762 bus1=1292.1.2.3 bus2=1481.1.2.3  phases=3 linecode=powersystem_db_lv_NA2XY_4x240_SE length = 0.015227309  
new line.2702 bus1=1509.1.2.3 bus2=99.1.2.3  phases=3 linecode=powersystem_db_lv_NAYY_4x120_SE length = 0.026910377  
new line.1673 bus1=1998.1.2.3 bus2=309.1.2.3  phases=3 linecode=powersystem_db_lv_NAYY_4x50_SE length = 0.034253857  
new line.2873 bus1=749.1.2.3 bus2=2451.1.2.3  phases=3 linecode=powersystem_db_lv_NAYY_4x120_SE length = 0.031447407  
new line.666 bus1=402.1.2.3 bus2=923.1.2.3  phases=3 linecode=powersystem_db_lv_NAYY_4x120_SE length = 0.009353613  
new line.77 bus1=733.1.2.3 bus2=130.1.2.3  phases=3 linecode=powersystem_db_lv_NAYY_4x50_SE length = 0.075297329  
new line.1473 bus1=1853.1.2.3 bus2=991.1.2.3  phases=3 linecode=powersystem_db_lv_NA2XY_4x240_SE length = 0.009768211  
new line.71 bus1=121.1.2.3 bus2=105.1.2.3  phases=3 linecode=powersystem_db_lv_NAYY_4x120_SE length = 0.002342305  
new line.2382 bus1=2163.1.2.3 bus2=2448.1.2.3  phases=3 linecode=powersystem_db_lv_NA2XY_4x240_SE length = 0.004099233  
new line.685 bus1=973.1.2.3 bus2=499.1.2.3  phases=3 linecode=powersystem_db_lv_NAYY_4x50_SE length = 0.057393276  
new line.1036 bus1=383.1.2.3 bus2=1468.1.2.3  phases=3 linecode=powersystem_db_lv_NAYY_4x50_SE length = 0.002018894  
new line.2874 bus1=2452.1.2.3 bus2=1749.1.2.3  phases=3 linecode=powersystem_db_lv_NAYY_4x150_SE length = 0.007099992  
new line.2964 bus1=839.1.2.3 bus2=103.1.2.3  phases=3 linecode=powersystem_db_lv_NAYY_4x50_SE length = 0.007172889  
new line.1632 bus1=1974.1.2.3 bus2=442.1.2.3  phases=3 linecode=powersystem_db_lv_NAYY_4x120_SE length = 0.009578446  
new line.1712 bus1=875.1.2.3 bus2=2029.1.2.3  phases=3 linecode=powersystem_db_lv_NAYY_4x120_SE length = 0.004703206  
new line.2847 bus1=2399.1.2.3 bus2=1941.1.2.3  phases=3 linecode=powersystem_db_lv_NAYY_4x50_SE length = 0.015580272  
new line.1634 bus1=1071.1.2.3 bus2=1975.1.2.3  phases=3 linecode=powersystem_db_lv_NAYY_4x50_SE length = 0.003535721  
new line.958 bus1=870.1.2.3 bus2=1379.1.2.3  phases=3 linecode=powersystem_db_lv_NAYY_4x50_SE length = 0.006123648  
new line.79 bus1=2562.1.2.3 bus2=249.1.2.3  phases=3 linecode=powersystem_db_lv_NAYY_4x150_SE length = 0.001685724  
new line.1202 bus1=1514.1.2.3 bus2=1636.1.2.3  phases=3 linecode=powersystem_db_lv_NAYY_4x50_SE length = 0.011282458  
new line.1570 bus1=1616.1.2.3 bus2=1928.1.2.3  phases=3 linecode=powersystem_db_lv_NAYY_4x50_SE length = 0.020102919  
new line.1864 bus1=2132.1.2.3 bus2=1135.1.2.3  phases=3 linecode=powersystem_db_lv_NA2XY_4x240_SE length = 0.009369367  
new line.388 bus1=434.1.2.3 bus2=472.1.2.3  phases=3 linecode=powersystem_db_lv_NA2XY_4x240_SE length = 0.018486667  
new line.2893 bus1=730.1.2.3 bus2=611.1.2.3  phases=3 linecode=powersystem_db_lv_NAYY_4x50_SE length = 0.016674277  
new line.2858 bus1=965.1.2.3 bus2=1736.1.2.3  phases=3 linecode=powersystem_db_lv_NAYY_4x120_SE length = 0.015120033  
new line.2143 bus1=1423.1.2.3 bus2=2310.1.2.3  phases=3 linecode=powersystem_db_lv_NA2XY_4x240_SE length = 0.005500769  
new line.2783 bus1=391.1.2.3 bus2=121.1.2.3  phases=3 linecode=powersystem_db_lv_NAYY_4x150_SE length = 0.012276123  
new line.2944 bus1=121.1.2.3 bus2=798.1.2.3  phases=3 linecode=powersystem_db_lv_NAYY_4x120_SE length = 0.015936323  
new line.389 bus1=730.1.2.3 bus2=611.1.2.3  phases=3 linecode=powersystem_db_lv_NAYY_4x50_SE length = 0.016674277  
new line.2796 bus1=1544.1.2.3 bus2=123.1.2.3  phases=3 linecode=powersystem_db_lv_NAYY_4x120_SE length = 0.002928124  
new line.2294 bus1=917.1.2.3 bus2=2399.1.2.3  phases=3 linecode=powersystem_db_lv_NAYY_4x50_SE length = 0.003760393  
new line.2937 bus1=787.1.2.3 bus2=565.1.2.3  phases=3 linecode=powersystem_db_lv_NAYY_4x150_SE length = 0.016389892  
new line.3032 bus1=1403.1.2.3 bus2=2191.1.2.3  phases=3 linecode=powersystem_db_lv_NAYY_4x150_SE length = 0.005036597  
new line.3010 bus1=1144.1.2.3 bus2=917.1.2.3  phases=3 linecode=powersystem_db_lv_NAYY_4x50_SE length = 0.024061722  
new line.2166 bus1=441.1.2.3 bus2=2323.1.2.3  phases=3 linecode=powersystem_db_lv_NAYY_4x120_SE length = 0.001231891  
new line.2801 bus1=2267.1.2.3 bus2=2315.1.2.3  phases=3 linecode=powersystem_db_lv_NAYY_4x50_SE length = 0.012979558  
new line.2938 bus1=776.1.2.3 bus2=787.1.2.3  phases=3 linecode=powersystem_db_lv_NAYY_4x150_SE length = 0.049179252  
new line.46 bus1=749.1.2.3 bus2=139.1.2.3  phases=3 linecode=powersystem_db_lv_NAYY_4x120_SE length = 0.000785581  
new line.974 bus1=121.1.2.3 bus2=1403.1.2.3  phases=3 linecode=powersystem_db_lv_NAYY_4x150_SE length = 0.037735247  
new line.1414 bus1=1585.1.2.3 bus2=1805.1.2.3  phases=3 linecode=powersystem_db_lv_NAYY_4x50_SE length = 0.002515222  
new line.1875 bus1=2139.1.2.3 bus2=900.1.2.3  phases=3 linecode=powersystem_db_lv_NA2XY_4x240_SE length = 0.005112798  
new line.2955 bus1=1971.1.2.3 bus2=922.1.2.3  phases=3 linecode=powersystem_db_lv_NAYY_4x50_SE length = 0.001049327  
new line.78 bus1=309.1.2.3 bus2=702.1.2.3  phases=3 linecode=powersystem_db_lv_NAYY_4x50_SE length = 0.002501087  
new line.990 bus1=854.1.2.3 bus2=1421.1.2.3  phases=3 linecode=powersystem_db_lv_NAYY_4x50_SE length = 0.015165086  
new line.72 bus1=165.1.2.3 bus2=730.1.2.3  phases=3 linecode=powersystem_db_lv_NAYY_4x50_SE length = 0.010389106  
new line.1431 bus1=1487.1.2.3 bus2=1819.1.2.3  phases=3 linecode=powersystem_db_lv_NAYY_4x50_SE length = 0.01234673  
new line.2218 bus1=2356.1.2.3 bus2=1616.1.2.3  phases=3 linecode=powersystem_db_lv_NAYY_4x50_SE length = 0.003981219  
new line.2326 bus1=2209.1.2.3 bus2=2417.1.2.3  phases=3 linecode=powersystem_db_lv_NAYY_4x50_SE length = 0.002380348  
new line.579 bus1=121.1.2.3 bus2=798.1.2.3  phases=3 linecode=powersystem_db_lv_NAYY_4x120_SE length = 0.015936323  
new line.2982 bus1=2030.1.2.3 bus2=1906.1.2.3  phases=3 linecode=powersystem_db_lv_NAYY_4x50_SE length = 0.019757939  
new line.1257 bus1=1122.1.2.3 bus2=1679.1.2.3  phases=3 linecode=powersystem_db_lv_NAYY_4x50_SE length = 0.008349237  
new line.707 bus1=861.1.2.3 bus2=1018.1.2.3  phases=3 linecode=powersystem_db_lv_NAYY_4x120_SE length = 0.022796885  
new line.2782 bus1=390.1.2.3 bus2=391.1.2.3  phases=3 linecode=powersystem_db_lv_NAYY_4x120_SE length = 0.027577949  
new line.3044 bus1=1451.1.2.3 bus2=839.1.2.3  phases=3 linecode=powersystem_db_lv_NAYY_4x50_SE length = 0.054485089  
new line.588 bus1=777.1.2.3 bus2=810.1.2.3  phases=3 linecode=powersystem_db_lv_NAYY_4x50_SE length = 0.016249894  
new line.1327 bus1=1737.1.2.3 bus2=1691.1.2.3  phases=3 linecode=powersystem_db_lv_NAYY_4x50_SE length = 0.008709478  
new line.2786 bus1=527.1.2.3 bus2=165.1.2.3  phases=3 linecode=powersystem_db_lv_NAYY_4x50_SE length = 0.000921499  
new line.354 bus1=565.1.2.3 bus2=749.1.2.3  phases=3 linecode=powersystem_db_lv_NAYY_4x120_SE length = 0.007910206  
new line.299 bus1=740.1.2.3 bus2=477.1.2.3  phases=3 linecode=powersystem_db_lv_NAYY_4x50_SE length = 0.056301101  
new line.3026 bus1=1270.1.2.3 bus2=1292.1.2.3  phases=3 linecode=powersystem_db_lv_NA2XY_4x240_SE length = 0.006944716  
new line.677 bus1=391.1.2.3 bus2=965.1.2.3  phases=3 linecode=powersystem_db_lv_NAYY_4x120_SE length = 0.001167149  
new line.1044 bus1=1269.1.2.3 bus2=1477.1.2.3  phases=3 linecode=powersystem_db_lv_NAYY_4x120_SE length = 0.010522979  
new line.2775 bus1=2276.1.2.3 bus2=777.1.2.3  phases=3 linecode=powersystem_db_lv_NAYY_4x50_SE length = 0.019340706  
new line.1627 bus1=1971.1.2.3 bus2=922.1.2.3  phases=3 linecode=powersystem_db_lv_NAYY_4x50_SE length = 0.001049327  
new line.2391 bus1=2272.1.2.3 bus2=2453.1.2.3  phases=3 linecode=powersystem_db_lv_NA2XY_4x240_SE length = 0.010193559  
new line.1095 bus1=383.1.2.3 bus2=1531.1.2.3  phases=3 linecode=powersystem_db_lv_NAYY_4x50_SE length = 0.008685008  
new line.2792 bus1=2562.1.2.3 bus2=249.1.2.3  phases=3 linecode=powersystem_db_lv_NAYY_4x150_SE length = 0.001685724  
new line.1111 bus1=1544.1.2.3 bus2=123.1.2.3  phases=3 linecode=powersystem_db_lv_NAYY_4x120_SE length = 0.002928124  
new line.2967 bus1=434.1.2.3 bus2=861.1.2.3  phases=3 linecode=powersystem_db_lv_NAYY_4x120_SE length = 0.042557414  
new line.595 bus1=730.1.2.3 bus2=819.1.2.3  phases=3 linecode=powersystem_db_lv_NAYY_4x50_SE length = 0.01888927  
new line.2035 bus1=1037.1.2.3 bus2=2241.1.2.3  phases=3 linecode=powersystem_db_lv_NA2XY_4x240_SE length = 0.027916608  
new line.2932 bus1=249.1.2.3 bus2=248.1.2.3  phases=3 linecode=powersystem_db_lv_NAYY_4x150_SE length = 0.003184297  
new line.2951 bus1=165.1.2.3 bus2=627.1.2.3  phases=3 linecode=powersystem_db_lv_NAYY_4x50_SE length = 0.009907814  
new line.2180 bus1=2332.1.2.3 bus2=2144.1.2.3  phases=3 linecode=powersystem_db_lv_NA2XY_4x240_SE length = 0.010844403  
new line.1462 bus1=1842.1.2.3 bus2=1841.1.2.3  phases=3 linecode=powersystem_db_lv_NAYY_4x150_SE length = 0.004777407  
new line.794 bus1=865.1.2.3 bus2=1159.1.2.3  phases=3 linecode=powersystem_db_lv_NAYY_4x50_SE length = 0.005630497  
new line.1897 bus1=2152.1.2.3 bus2=1144.1.2.3  phases=3 linecode=powersystem_db_lv_NAYY_4x50_SE length = 0.012225129  
new line.2708 bus1=2029.1.2.3 bus2=1165.1.2.3  phases=3 linecode=powersystem_db_lv_NAYY_4x120_SE length = 0.004000306  
new line.2156 bus1=2318.1.2.3 bus2=2004.1.2.3  phases=3 linecode=powersystem_db_lv_NAYY_4x50_SE length = 0.019047862  
new line.2899 bus1=1487.1.2.3 bus2=1819.1.2.3  phases=3 linecode=powersystem_db_lv_NAYY_4x50_SE length = 0.01234673  
new line.855 bus1=441.1.2.3 bus2=1247.1.2.3  phases=3 linecode=powersystem_db_lv_NA2XY_4x240_SE length = 0.009387366  
new line.1948 bus1=472.1.2.3 bus2=2188.1.2.3  phases=3 linecode=powersystem_db_lv_NAYY_4x150_SE length = 0.023340392  
new line.747 bus1=1047.1.2.3 bus2=1084.1.2.3  phases=3 linecode=powersystem_db_lv_NAYY_4x50_SE length = 0.005613854  
new line.1252 bus1=1675.1.2.3 bus2=1409.1.2.3  phases=3 linecode=powersystem_db_lv_NAYY_4x50_SE length = 0.042850504  
new line.1598 bus1=1951.1.2.3 bus2=1320.1.2.3  phases=3 linecode=powersystem_db_lv_NAYY_4x50_SE length = 0.006118194  
new line.3020 bus1=165.1.2.3 bus2=2142.1.2.3  phases=3 linecode=powersystem_db_lv_NAYY_4x50_SE length = 0.006702076  
new line.2797 bus1=402.1.2.3 bus2=1544.1.2.3  phases=3 linecode=powersystem_db_lv_NAYY_4x120_SE length = 0.022978814  
new line.2115 bus1=2294.1.2.3 bus2=1907.1.2.3  phases=3 linecode=powersystem_db_lv_NAYY_4x50_SE length = 0.013435813  
new line.1841 bus1=2116.1.2.3 bus2=1348.1.2.3  phases=3 linecode=powersystem_db_lv_NAYY_4x120_SE length = 0.023264328  
new line.1294 bus1=1379.1.2.3 bus2=1714.1.2.3  phases=3 linecode=powersystem_db_lv_NAYY_4x50_SE length = 0.004859145  
new line.1146 bus1=1209.1.2.3 bus2=1583.1.2.3  phases=3 linecode=powersystem_db_lv_NAYY_4x50_SE length = 0.011532973  
new line.1300 bus1=92.1.2.3 bus2=1718.1.2.3  phases=3 linecode=powersystem_db_lv_NAYY_4x120_SE length = 0.001030097  
new line.2861 bus1=1737.1.2.3 bus2=1691.1.2.3  phases=3 linecode=powersystem_db_lv_NAYY_4x50_SE length = 0.008709478  
new line.758 bus1=900.1.2.3 bus2=1108.1.2.3  phases=3 linecode=powersystem_db_lv_NA2XY_4x240_SE length = 0.00374983  
new line.2283 bus1=2393.1.2.3 bus2=1122.1.2.3  phases=3 linecode=powersystem_db_lv_NAYY_4x50_SE length = 0.01708403  
new line.2354 bus1=2431.1.2.3 bus2=1951.1.2.3  phases=3 linecode=powersystem_db_lv_NAYY_4x50_SE length = 0.00530003  
new line.1944 bus1=2186.1.2.3 bus2=1932.1.2.3  phases=3 linecode=powersystem_db_lv_NA2XY_4x240_SE length = 0.009605237  
new line.1539 bus1=1906.1.2.3 bus2=973.1.2.3  phases=3 linecode=powersystem_db_lv_NAYY_4x50_SE length = 0.010994478  
new line.557 bus1=193.1.2.3 bus2=775.1.2.3  phases=3 linecode=powersystem_db_lv_NA2XY_4x240_SE length = 0.04514502  
new line.2349 bus1=1935.1.2.3 bus2=2429.1.2.3  phases=3 linecode=powersystem_db_lv_NA2XY_4x240_SE length = 0.01173426  
new line.1672 bus1=310.1.2.3 bus2=1998.1.2.3  phases=3 linecode=powersystem_db_lv_NAYY_4x50_SE length = 0.03639944  
new line.1203 bus1=1636.1.2.3 bus2=1520.1.2.3  phases=3 linecode=powersystem_db_lv_NAYY_4x50_SE length = 0.006853626  
new line.1056 bus1=144.1.2.3 bus2=1487.1.2.3  phases=3 linecode=powersystem_db_lv_NAYY_4x50_SE length = 0.017615995  
new line.3022 bus1=2152.1.2.3 bus2=1144.1.2.3  phases=3 linecode=powersystem_db_lv_NAYY_4x50_SE length = 0.012225129  
new line.587 bus1=2562.1.2.3 bus2=808.1.2.3  phases=3 linecode=powersystem_db_lv_NAYY_4x120_SE length = 0.094246756  
new line.2638 bus1=165.1.2.3 bus2=627.1.2.3  phases=3 linecode=powersystem_db_lv_NAYY_4x50_SE length = 0.009907814  
new line.786 bus1=1144.1.2.3 bus2=917.1.2.3  phases=3 linecode=powersystem_db_lv_NAYY_4x50_SE length = 0.024061722  
new line.936 bus1=1348.1.2.3 bus2=390.1.2.3  phases=3 linecode=powersystem_db_lv_NAYY_4x120_SE length = 0.019539007  
new line.1597 bus1=1949.1.2.3 bus2=1575.1.2.3  phases=3 linecode=powersystem_db_lv_NA2XY_4x240_SE length = 0.004114108  
new line.2898 bus1=165.1.2.3 bus2=627.1.2.3  phases=3 linecode=powersystem_db_lv_NAYY_4x50_SE length = 0.009907814  
new line.1959 bus1=1637.1.2.3 bus2=2195.1.2.3  phases=3 linecode=powersystem_db_lv_NAYY_4x50_SE length = 0.011434494  
new line.1345 bus1=1749.1.2.3 bus2=1079.1.2.3  phases=3 linecode=powersystem_db_lv_NAYY_4x150_SE length = 0.004600783  
new line.84 bus1=693.1.2.3 bus2=742.1.2.3  phases=3 linecode=powersystem_db_lv_NAYY_4x50_SE length = 0.013069466  
new line.1635 bus1=1975.1.2.3 bus2=383.1.2.3  phases=3 linecode=powersystem_db_lv_NAYY_4x50_SE length = 0.005546143  
new line.2949 bus1=814.1.2.3 bus2=434.1.2.3  phases=3 linecode=powersystem_db_lv_NA2XY_4x240_SE length = 0.002340084  
new line.2005 bus1=1877.1.2.3 bus2=2221.1.2.3  phases=3 linecode=powersystem_db_lv_NAYY_4x50_SE length = 0.003181467  
new line.2971 bus1=310.1.2.3 bus2=1998.1.2.3  phases=3 linecode=powersystem_db_lv_NAYY_4x50_SE length = 0.03639944  
new line.3041 bus1=1519.1.2.3 bus2=2234.1.2.3  phases=3 linecode=powersystem_db_lv_NAYY_4x120_SE length = 0.001306457  
new line.2787 bus1=611.1.2.3 bus2=310.1.2.3  phases=3 linecode=powersystem_db_lv_NAYY_4x50_SE length = 0.008737718  
new line.1914 bus1=1181.1.2.3 bus2=2163.1.2.3  phases=3 linecode=powersystem_db_lv_NA2XY_4x240_SE length = 0.006907434  
new line.2107 bus1=2289.1.2.3 bus2=1483.1.2.3  phases=3 linecode=powersystem_db_lv_NAYY_4x50_SE length = 0.011612213  
new line.3063 bus1=248.1.2.3 bus2=220.1.2.3  phases=3 linecode=powersystem_db_lv_NA2XY_4x240_SE length = 0.090864722  
new line.906 bus1=1243.1.2.3 bus2=1304.1.2.3  phases=3 linecode=powersystem_db_lv_NAYY_4x150_SE length = 0.004883643  
new line.1376 bus1=1775.1.2.3 bus2=802.1.2.3  phases=3 linecode=powersystem_db_lv_NA2XY_4x240_SE length = 0.005552092  
new line.2862 bus1=810.1.2.3 bus2=1737.1.2.3  phases=3 linecode=powersystem_db_lv_NAYY_4x50_SE length = 0.001947107  
new line.2991 bus1=2061.1.2.3 bus2=1519.1.2.3  phases=3 linecode=powersystem_db_lv_NAYY_4x120_SE length = 0.013136189  
new line.3043 bus1=191.1.2.3 bus2=2246.1.2.3  phases=3 linecode=powersystem_db_lv_NAYY_4x50_SE length = 0.014204937  
new line.2443 bus1=2481.1.2.3 bus2=2349.1.2.3  phases=3 linecode=powersystem_db_lv_NAYY_4x50_SE length = 0.005799981  
new line.1934 bus1=220.1.2.3 bus2=2178.1.2.3  phases=3 linecode=powersystem_db_lv_NAYY_4x150_SE length = 0.001476031  
new line.3015 bus1=2116.1.2.3 bus2=1348.1.2.3  phases=3 linecode=powersystem_db_lv_NAYY_4x120_SE length = 0.023264328  
new line.2939 bus1=565.1.2.3 bus2=789.1.2.3  phases=3 linecode=powersystem_db_lv_NAYY_4x120_SE length = 0.01876058  
new line.368 bus1=472.1.2.3 bus2=527.1.2.3  phases=3 linecode=powersystem_db_lv_NAYY_4x150_SE length = 0.008473912  
new line.2872 bus1=2451.1.2.3 bus2=2116.1.2.3  phases=3 linecode=powersystem_db_lv_NAYY_4x120_SE length = 0.004238292  
new line.2851 bus1=917.1.2.3 bus2=2399.1.2.3  phases=3 linecode=powersystem_db_lv_NAYY_4x50_SE length = 0.003760393  
new line.993 bus1=1427.1.2.3 bus2=462.1.2.3  phases=3 linecode=powersystem_db_lv_NAYY_4x150_SE length = 0.144544254  
new line.2000 bus1=1084.1.2.3 bus2=2218.1.2.3  phases=3 linecode=powersystem_db_lv_NAYY_4x50_SE length = 0.005001434  
new line.726 bus1=800.1.2.3 bus2=1048.1.2.3  phases=3 linecode=powersystem_db_lv_NAYY_4x120_SE length = 0.018777721  
new line.74 bus1=611.1.2.3 bus2=310.1.2.3  phases=3 linecode=powersystem_db_lv_NAYY_4x50_SE length = 0.008737718  
new line.2150 bus1=2267.1.2.3 bus2=2315.1.2.3  phases=3 linecode=powersystem_db_lv_NAYY_4x50_SE length = 0.012979558  
new line.1571 bus1=1929.1.2.3 bus2=1634.1.2.3  phases=3 linecode=powersystem_db_lv_NAYY_4x50_SE length = 0.006364877  
new line.2901 bus1=1819.1.2.3 bus2=2295.1.2.3  phases=3 linecode=powersystem_db_lv_NAYY_4x50_SE length = 0.005945317  
new line.3034 bus1=1348.1.2.3 bus2=390.1.2.3  phases=3 linecode=powersystem_db_lv_NAYY_4x120_SE length = 0.019539007  
new line.2863 bus1=1749.1.2.3 bus2=1079.1.2.3  phases=3 linecode=powersystem_db_lv_NAYY_4x150_SE length = 0.004600783  
new line.793 bus1=1159.1.2.3 bus2=779.1.2.3  phases=3 linecode=powersystem_db_lv_NAYY_4x50_SE length = 0.011902765  
new line.1463 bus1=1304.1.2.3 bus2=1842.1.2.3  phases=3 linecode=powersystem_db_lv_NAYY_4x150_SE length = 0.007664021  
new line.708 bus1=1018.1.2.3 bus2=825.1.2.3  phases=3 linecode=powersystem_db_lv_NAYY_4x120_SE length = 0.019482519  
new line.3008 bus1=1143.1.2.3 bus2=854.1.2.3  phases=3 linecode=powersystem_db_lv_NAYY_4x50_SE length = 0.007107836  
new line.2842 bus1=1691.1.2.3 bus2=191.1.2.3  phases=3 linecode=powersystem_db_lv_NAYY_4x50_SE length = 0.013433991  
new line.2794 bus1=1542.1.2.3 bus2=1243.1.2.3  phases=3 linecode=powersystem_db_lv_NAYY_4x150_SE length = 0.002957926  
new line.2895 bus1=1585.1.2.3 bus2=1805.1.2.3  phases=3 linecode=powersystem_db_lv_NAYY_4x50_SE length = 0.002515222  
new line.3012 bus1=865.1.2.3 bus2=1159.1.2.3  phases=3 linecode=powersystem_db_lv_NAYY_4x50_SE length = 0.005630497  
new line.1868 bus1=1062.1.2.3 bus2=2135.1.2.3  phases=3 linecode=powersystem_db_lv_NAYY_4x50_SE length = 0.008100316  
new line.785 bus1=819.1.2.3 bus2=1143.1.2.3  phases=3 linecode=powersystem_db_lv_NAYY_4x50_SE length = 0.030498792  
new line.1018 bus1=1451.1.2.3 bus2=839.1.2.3  phases=3 linecode=powersystem_db_lv_NAYY_4x50_SE length = 0.054485089  
new line.2117 bus1=1819.1.2.3 bus2=2295.1.2.3  phases=3 linecode=powersystem_db_lv_NAYY_4x50_SE length = 0.005945317  
new line.2690 bus1=2562.1.2.3 bus2=875.1.2.3  phases=3 linecode=powersystem_db_lv_NAYY_4x120_SE length = 0.130426053  
new line.1880 bus1=165.1.2.3 bus2=2142.1.2.3  phases=3 linecode=powersystem_db_lv_NAYY_4x50_SE length = 0.006702076  
new line.1287 bus1=1706.1.2.3 bus2=995.1.2.3  phases=3 linecode=powersystem_db_lv_NA2XY_4x240_SE length = 0.01074508  
new line.2931 bus1=1929.1.2.3 bus2=1634.1.2.3  phases=3 linecode=powersystem_db_lv_NAYY_4x50_SE length = 0.006364877  
new line.3004 bus1=2093.1.2.3 bus2=1209.1.2.3  phases=3 linecode=powersystem_db_lv_NAYY_4x50_SE length = 0.014294925  
new line.1019 bus1=309.1.2.3 bus2=1451.1.2.3  phases=3 linecode=powersystem_db_lv_NAYY_4x50_SE length = 0.010555149  
new line.1325 bus1=965.1.2.3 bus2=1736.1.2.3  phases=3 linecode=powersystem_db_lv_NAYY_4x120_SE length = 0.015120033  
new line.1273 bus1=1691.1.2.3 bus2=191.1.2.3  phases=3 linecode=powersystem_db_lv_NAYY_4x50_SE length = 0.013433991  
new line.2010 bus1=2178.1.2.3 bus2=2224.1.2.3  phases=3 linecode=powersystem_db_lv_NAYY_4x150_SE length = 0.012741115  
new line.1413 bus1=1805.1.2.3 bus2=1359.1.2.3  phases=3 linecode=powersystem_db_lv_NAYY_4x50_SE length = 0.004526364  
...
! Loads data 
new load.772100000283414 bus1=869.1.0 phases=1 kw=2.122 kvar=0.698 conn=wye kv=0.23 
new load.2662 bus1=865.1.0 phases=1 kw=9.565 kvar=7.174 conn=wye kv=0.23 
new load.35 bus1=839.1.0 phases=1 kw=3.561 kvar=2.671 conn=wye kv=0.23 
new load.1855 bus1=815.1.0 phases=1 kw=0.853 kvar=0.64 conn=wye kv=0.23 
new load.772100000284914 bus1=1014.1.0 phases=1 kw=3.409 kvar=1.12 conn=wye kv=0.23 
new load.772100000287701 bus1=2310.1.0 phases=1 kw=1.79 kvar=0.588 conn=wye kv=0.23 
new load.772100001013764 bus1=1585.1.0 phases=1 kw=5.122 kvar=1.684 conn=wye kv=0.23 
new load.772100000283122 bus1=1619.1.0 phases=1 kw=1.818 kvar=0.598 conn=wye kv=0.23 
new load.772100000284913 bus1=2093.1.0 phases=1 kw=2.719 kvar=0.894 conn=wye kv=0.23 
new load.772100000287488 bus1=1292.1.0 phases=1 kw=3.993 kvar=1.312 conn=wye kv=0.23 
new load.772100000285284 bus1=2349.1.0 phases=1 kw=1.852 kvar=0.609 conn=wye kv=0.23 
new load.772100000283853 bus1=1199.1.0 phases=1 kw=2.238 kvar=0.735 conn=wye kv=0.23 
new load.772100000284303 bus1=1346.1.0 phases=1 kw=3.967 kvar=1.304 conn=wye kv=0.23 
new load.1123 bus1=808.1.0 phases=1 kw=1.335 kvar=1.001 conn=wye kv=0.23 
new load.772100000282229 bus1=2292.1.0 phases=1 kw=3.662 kvar=1.204 conn=wye kv=0.23 
new load.772100000288246 bus1=1907.1.0 phases=1 kw=3.359 kvar=1.104 conn=wye kv=0.23 
new load.772100000288248 bus1=1737.1.0 phases=1 kw=2.976 kvar=0.978 conn=wye kv=0.23 
new load.772100000288167 bus1=1691.1.0 phases=1 kw=4.653 kvar=1.529 conn=wye kv=0.23 
new load.2390 bus1=856.1.0 phases=1 kw=1.301 kvar=0.976 conn=wye kv=0.23 
new load.772100000284692 bus1=1122.1.0 phases=1 kw=1.755 kvar=0.577 conn=wye kv=0.23 
new load.772100000285179 bus1=2004.1.0 phases=1 kw=2.517 kvar=0.827 conn=wye kv=0.23 
new load.772100000283129 bus1=991.1.0 phases=1 kw=1.834 kvar=0.603 conn=wye kv=0.23 
new load.772100000283131 bus1=2139.1.0 phases=1 kw=1.827 kvar=0.601 conn=wye kv=0.23 
new load.772100000287361 bus1=2163.1.0 phases=1 kw=2.383 kvar=0.783 conn=wye kv=0.23 
new load.772100000286432 bus1=1930.1.0 phases=1 kw=3.046 kvar=1.001 conn=wye kv=0.23 
new load.772100000287695 bus1=1706.1.0 phases=1 kw=2.465 kvar=0.81 conn=wye kv=0.23 
new load.772100000284562 bus1=2255.1.0 phases=1 kw=2.246 kvar=0.738 conn=wye kv=0.23 
new load.772100000288520 bus1=1519.1.0 phases=1 kw=2.56 kvar=0.841 conn=wye kv=0.23 
new load.772100000284688 bus1=1071.1.0 phases=1 kw=2.42 kvar=0.795 conn=wye kv=0.23 
new load.772100000286280 bus1=1998.1.0 phases=1 kw=9.549 kvar=3.139 conn=wye kv=0.23 
new load.772100000283132 bus1=900.1.0 phases=1 kw=2.365 kvar=0.777 conn=wye kv=0.23 
new load.772100001009992 bus1=2451.1.0 phases=1 kw=8.062 kvar=2.65 conn=wye kv=0.23 
new load.772100000283121 bus1=1269.1.0 phases=1 kw=1.818 kvar=0.598 conn=wye kv=0.23 
new load.772100000283123 bus1=2323.1.0 phases=1 kw=1.835 kvar=0.603 conn=wye kv=0.23 
new load.772100000284682 bus1=2417.1.0 phases=1 kw=2.247 kvar=0.739 conn=wye kv=0.23 
new load.772100000286314 bus1=1159.1.0 phases=1 kw=2.382 kvar=0.783 conn=wye kv=0.23 
new load.772100000286433 bus1=1391.1.0 phases=1 kw=2.369 kvar=0.779 conn=wye kv=0.23 
new load.772100000286968 bus1=825.1.0 phases=1 kw=3.214 kvar=1.057 conn=wye kv=0.23 
new load.772100000288516 bus1=2234.1.0 phases=1 kw=2.443 kvar=0.803 conn=wye kv=0.23 
new load.772100000286513 bus1=2415.1.0 phases=1 kw=1.934 kvar=0.636 conn=wye kv=0.23 
new load.772100000284013 bus1=1676.1.0 phases=1 kw=1.732 kvar=0.569 conn=wye kv=0.23 
new load.772100000285281 bus1=1062.1.0 phases=1 kw=1.882 kvar=0.619 conn=wye kv=0.23 
new load.772100000287697 bus1=995.1.0 phases=1 kw=2.423 kvar=0.796 conn=wye kv=0.23 
new load.772100000283667 bus1=1675.1.0 phases=1 kw=4.278 kvar=1.406 conn=wye kv=0.23 
new load.772100000286091 bus1=2251.1.0 phases=1 kw=2.244 kvar=0.738 conn=wye kv=0.23 
new load.772100000286688 bus1=1359.1.0 phases=1 kw=3.021 kvar=0.993 conn=wye kv=0.23 
new load.772100000283506 bus1=2356.1.0 phases=1 kw=4.043 kvar=1.329 conn=wye kv=0.23 
new load.772100000287355 bus1=2186.1.0 phases=1 kw=2.458 kvar=0.808 conn=wye kv=0.23 
new load.78 bus1=802.1.0 phases=1 kw=0.853 kvar=0.64 conn=wye kv=0.23 
new load.772100000288164 bus1=810.1.0 phases=1 kw=5.613 kvar=1.845 conn=wye kv=0.23 
new load.772100001013763 bus1=891.1.0 phases=1 kw=6.888 kvar=2.264 conn=wye kv=0.23 
new load.772100000283963 bus1=1637.1.0 phases=1 kw=2.493 kvar=0.82 conn=wye kv=0.23 
new load.809 bus1=472.1.0 phases=1 kw=3.648 kvar=2.736 conn=wye kv=0.23 
new load.772100000283451 bus1=1929.1.0 phases=1 kw=4.121 kvar=1.355 conn=wye kv=0.23 
new load.772100000287692 bus1=1472.1.0 phases=1 kw=1.786 kvar=0.587 conn=wye kv=0.23 
new load.772100000287700 bus1=1423.1.0 phases=1 kw=1.87 kvar=0.614 conn=wye kv=0.23 
new load.772100000287358 bus1=1618.1.0 phases=1 kw=1.804 kvar=0.593 conn=wye kv=0.23 
new load.1748 bus1=777.1.0 phases=1 kw=1.747 kvar=1.31 conn=wye kv=0.23 
new load.772100000284007 bus1=2218.1.0 phases=1 kw=1.69 kvar=0.555 conn=wye kv=0.23 
new load.772100000284687 bus1=1975.1.0 phases=1 kw=1.692 kvar=0.556 conn=wye kv=0.23 
new load.772100000288224 bus1=402.1.0 phases=1 kw=1.916 kvar=0.63 conn=wye kv=0.23 
new load.772100000284566 bus1=1974.1.0 phases=1 kw=2.515 kvar=0.827 conn=wye kv=0.23 
new load.772100000285506 bus1=2259.1.0 phases=1 kw=2.468 kvar=0.811 conn=wye kv=0.23 
new load.772100000286689 bus1=1805.1.0 phases=1 kw=2.166 kvar=0.712 conn=wye kv=0.23 
new load.772100000287210 bus1=1542.1.0 phases=1 kw=2.076 kvar=0.682 conn=wye kv=0.23 
new load.772100000285180 bus1=2176.1.0 phases=1 kw=2.542 kvar=0.836 conn=wye kv=0.23 
new load.772100000287702 bus1=1753.1.0 phases=1 kw=2.468 kvar=0.811 conn=wye kv=0.23 
new load.772100000284679 bus1=2050.1.0 phases=1 kw=1.679 kvar=0.552 conn=wye kv=0.23 
new load.1603 bus1=860.1.0 phases=1 kw=5.436 kvar=4.077 conn=wye kv=0.23 
new load.772100000288141 bus1=1544.1.0 phases=1 kw=1.938 kvar=0.637 conn=wye kv=0.23 
new load.772100000287204 bus1=1403.1.0 phases=1 kw=2.451 kvar=0.806 conn=wye kv=0.23 
new load.772100000283410 bus1=2215.1.0 phases=1 kw=2.182 kvar=0.717 conn=wye kv=0.23 
new load.772100000284285 bus1=1941.1.0 phases=1 kw=3.692 kvar=1.214 conn=wye kv=0.23 
new load.772100000283855 bus1=1791.1.0 phases=1 kw=2.207 kvar=0.725 conn=wye kv=0.23 
new load.772100000283125 bus1=1247.1.0 phases=1 kw=1.826 kvar=0.6 conn=wye kv=0.23 
new load.996 bus1=845.1.0 phases=1 kw=11.248 kvar=8.436 conn=wye kv=0.23 
new load.772100000283503 bus1=2511.1.0 phases=1 kw=3.389 kvar=1.114 conn=wye kv=0.23 
new load.772100001000653 bus1=2067.1.0 phases=1 kw=9.725 kvar=3.196 conn=wye kv=0.23 
new load.772100000950217 bus1=1243.1.0 phases=1 kw=2.255 kvar=0.741 conn=wye kv=0.23 
new load.772100000287157 bus1=105.1.0 phases=1 kw=2.668 kvar=0.877 conn=wye kv=0.23 
new load.772100000285823 bus1=862.1.0 phases=1 kw=7.363 kvar=2.42 conn=wye kv=0.23 
new load.772100000286251 bus1=1531.1.0 phases=1 kw=2.119 kvar=0.697 conn=wye kv=0.23 
new load.772100000284281 bus1=2267.1.0 phases=1 kw=3.126 kvar=1.027 conn=wye kv=0.23 
new load.772100000286390 bus1=1336.1.0 phases=1 kw=5.207 kvar=1.712 conn=wye kv=0.23 
new load.772100000283118 bus1=1539.1.0 phases=1 kw=1.872 kvar=0.615 conn=wye kv=0.23 
new load.772100000287694 bus1=1575.1.0 phases=1 kw=1.777 kvar=0.584 conn=wye kv=0.23 
new load.772100000288070 bus1=1097.1.0 phases=1 kw=1.608 kvar=0.528 conn=wye kv=0.23 
new load.772100000284683 bus1=2209.1.0 phases=1 kw=1.703 kvar=0.56 conn=wye kv=0.23 
new load.772100000287205 bus1=2191.1.0 phases=1 kw=2.451 kvar=0.806 conn=wye kv=0.23 
new load.772100000287362 bus1=2448.1.0 phases=1 kw=2.217 kvar=0.729 conn=wye kv=0.23 
new load.772100000284563 bus1=1165.1.0 phases=1 kw=2.533 kvar=0.833 conn=wye kv=0.23 
new load.772100000288161 bus1=1427.1.0 phases=1 kw=2.457 kvar=0.808 conn=wye kv=0.23 
new load.772100000288247 bus1=2295.1.0 phases=1 kw=2.772 kvar=0.911 conn=wye kv=0.23 
new load.772100000283966 bus1=1636.1.0 phases=1 kw=2.196 kvar=0.722 conn=wye kv=0.23 
new load.772100000287699 bus1=2369.1.0 phases=1 kw=2.217 kvar=0.729 conn=wye kv=0.23 
new load.772100000285784 bus1=1352.1.0 phases=1 kw=3.842 kvar=1.263 conn=wye kv=0.23 
new load.772100000288168 bus1=2294.1.0 phases=1 kw=4.15 kvar=1.364 conn=wye kv=0.23 
new load.772100000283124 bus1=441.1.0 phases=1 kw=1.837 kvar=0.604 conn=wye kv=0.23 
new load.772100000284015 bus1=1409.1.0 phases=1 kw=4.374 kvar=1.438 conn=wye kv=0.23 
new load.772100000289100 bus1=1264.1.0 phases=1 kw=2.725 kvar=0.896 conn=wye kv=0.23 
new load.772100000287209 bus1=1079.1.0 phases=1 kw=2.483 kvar=0.816 conn=wye kv=0.23 
new load.772100000285501 bus1=1037.1.0 phases=1 kw=2.392 kvar=0.786 conn=wye kv=0.23 
new load.1447 bus1=775.1.0 phases=1 kw=4.564 kvar=3.424 conn=wye kv=0.23 
new load.772100000284689 bus1=1582.1.0 phases=1 kw=1.684 kvar=0.553 conn=wye kv=0.23 
new load.772100001019301 bus1=1421.1.0 phases=1 kw=5.14 kvar=1.689 conn=wye kv=0.23 
new load.772100000287652 bus1=2116.1.0 phases=1 kw=5.75 kvar=1.89 conn=wye kv=0.23 
new load.772100000283967 bus1=1514.1.0 phases=1 kw=3.924 kvar=1.29 conn=wye kv=0.23 
new load.772100000288254 bus1=1971.1.0 phases=1 kw=2.949 kvar=0.969 conn=wye kv=0.23 
new load.772100000287156 bus1=965.1.0 phases=1 kw=1.95 kvar=0.641 conn=wye kv=0.23 
new load.772100000289099 bus1=1841.1.0 phases=1 kw=4.131 kvar=1.358 conn=wye kv=0.23 
new load.772100000286514 bus1=1694.1.0 phases=1 kw=1.8 kvar=0.592 conn=wye kv=0.23 
new load.772100000281908 bus1=1261.1.0 phases=1 kw=4.629 kvar=1.522 conn=wye kv=0.23 
new load.772100000288068 bus1=2257.1.0 phases=1 kw=1.617 kvar=0.531 conn=wye kv=0.23 
new load.772100000285108 bus1=854.1.0 phases=1 kw=2.931 kvar=0.964 conn=wye kv=0.23 
new load.772100000285783 bus1=193.1.0 phases=1 kw=1.798 kvar=0.591 conn=wye kv=0.23 
new load.772100000283082 bus1=1790.1.0 phases=1 kw=1.722 kvar=0.566 conn=wye kv=0.23 
new load.772100000285345 bus1=800.1.0 phases=1 kw=3.011 kvar=0.99 conn=wye kv=0.23 
new load.772100000286088 bus1=2453.1.0 phases=1 kw=2.39 kvar=0.786 conn=wye kv=0.23 
new load.772100000283126 bus1=2265.1.0 phases=1 kw=1.826 kvar=0.6 conn=wye kv=0.23 
new load.772100000287098 bus1=787.1.0 phases=1 kw=2.243 kvar=0.737 conn=wye kv=0.23 
new load.772100000283127 bus1=1853.1.0 phases=1 kw=1.826 kvar=0.6 conn=wye kv=0.23 
new load.772100000284691 bus1=1679.1.0 phases=1 kw=1.682 kvar=0.553 conn=wye kv=0.23 
new load.2028 bus1=779.1.0 phases=1 kw=2.987 kvar=2.24 conn=wye kv=0.23 
new load.2375 bus1=776.1.0 phases=1 kw=4.698 kvar=3.523 conn=wye kv=0.23 
new load.772100000283852 bus1=1556.1.0 phases=1 kw=2.617 kvar=0.86 conn=wye kv=0.23 
new load.772100000287155 bus1=1736.1.0 phases=1 kw=1.938 kvar=0.637 conn=wye kv=0.23 
new load.772100000286747 bus1=687.1.0 phases=1 kw=1.773 kvar=0.583 conn=wye kv=0.23 
new load.772100000285046 bus1=1451.1.0 phases=1 kw=3.009 kvar=0.989 conn=wye kv=0.23 
new load.772100001000619 bus1=1050.1.0 phases=1 kw=4.767 kvar=1.567 conn=wye kv=0.23 
new load.772100000284283 bus1=2399.1.0 phases=1 kw=3.347 kvar=1.1 conn=wye kv=0.23 
new load.772100000284011 bus1=1379.1.0 phases=1 kw=1.672 kvar=0.55 conn=wye kv=0.23 
new load.772100000283854 bus1=2305.1.0 phases=1 kw=2.613 kvar=0.859 conn=wye kv=0.23 
new load.772100000288251 bus1=1270.1.0 phases=1 kw=7.833 kvar=2.575 conn=wye kv=0.23 
new load.772100000283504 bus1=1928.1.0 phases=1 kw=3.813 kvar=1.253 conn=wye kv=0.23 
new load.772100000285781 bus1=1893.1.0 phases=1 kw=1.879 kvar=0.618 conn=wye kv=0.23 
new load.772100000284680 bus1=2221.1.0 phases=1 kw=1.687 kvar=0.554 conn=wye kv=0.23 
new load.772100001000623 bus1=1440.1.0 phases=1 kw=4.512 kvar=1.483 conn=wye kv=0.23 
new load.772100000287693 bus1=1949.1.0 phases=1 kw=1.882 kvar=0.619 conn=wye kv=0.23 
new load.772100000285181 bus1=880.1.0 phases=1 kw=2.09 kvar=0.687 conn=wye kv=0.23 
new load.772100000283077 bus1=1320.1.0 phases=1 kw=1.679 kvar=0.552 conn=wye kv=0.23 
new load.772100000284010 bus1=1714.1.0 phases=1 kw=1.658 kvar=0.545 conn=wye kv=0.23 
new load.772100000284261 bus1=1483.1.0 phases=1 kw=4.096 kvar=1.346 conn=wye kv=0.23 
new load.772100000286118 bus1=1517.1.0 phases=1 kw=2.456 kvar=0.807 conn=wye kv=0.23 
new load.772100000284570 bus1=1684.1.0 phases=1 kw=7.306 kvar=2.401 conn=wye kv=0.23 
new load.772100000284681 bus1=1877.1.0 phases=1 kw=1.684 kvar=0.553 conn=wye kv=0.23 
new load.772100000285653 bus1=917.1.0 phases=1 kw=2.844 kvar=0.935 conn=wye kv=0.23 
new load.772100000286234 bus1=2315.1.0 phases=1 kw=5.658 kvar=1.86 conn=wye kv=0.23 
new load.772100000283130 bus1=1250.1.0 phases=1 kw=1.832 kvar=0.602 conn=wye kv=0.23 
new load.772100000288244 bus1=2142.1.0 phases=1 kw=1.486 kvar=0.488 conn=wye kv=0.23 
new load.772100000283856 bus1=2159.1.0 phases=1 kw=2.733 kvar=0.898 conn=wye kv=0.23 
new load.772100000288662 bus1=789.1.0 phases=1 kw=4.649 kvar=1.528 conn=wye kv=0.23 
new load.772100000285243 bus1=1143.1.0 phases=1 kw=2.322 kvar=0.763 conn=wye kv=0.23 
new load.772100000284677 bus1=89.1.0 phases=1 kw=2.245 kvar=0.738 conn=wye kv=0.23 
new load.772100000286093 bus1=2132.1.0 phases=1 kw=2.317 kvar=0.762 conn=wye kv=0.23 
new load.772100000285656 bus1=1144.1.0 phases=1 kw=2.628 kvar=0.864 conn=wye kv=0.23 
new load.772100000288336 bus1=2188.1.0 phases=1 kw=2.661 kvar=0.875 conn=wye kv=0.23 
new load.772100000286089 bus1=1935.1.0 phases=1 kw=2.336 kvar=0.768 conn=wye kv=0.23 
new load.772100000286434 bus1=2301.1.0 phases=1 kw=2.514 kvar=0.826 conn=wye kv=0.23 
new load.772100000283120 bus1=1477.1.0 phases=1 kw=1.818 kvar=0.598 conn=wye kv=0.23 
new load.772100000284684 bus1=1215.1.0 phases=1 kw=1.693 kvar=0.556 conn=wye kv=0.23 
new load.772100000285503 bus1=1775.1.0 phases=1 kw=2.472 kvar=0.812 conn=wye kv=0.23 
new load.772100000286090 bus1=2429.1.0 phases=1 kw=2.231 kvar=0.733 conn=wye kv=0.23 
new load.772100000285282 bus1=2135.1.0 phases=1 kw=1.768 kvar=0.581 conn=wye kv=0.23 
new load.772100000289098 bus1=1842.1.0 phases=1 kw=2.315 kvar=0.761 conn=wye kv=0.23 
new load.772100000288252 bus1=2178.1.0 phases=1 kw=6.195 kvar=2.036 conn=wye kv=0.23 
new load.772100000286092 bus1=1316.1.0 phases=1 kw=2.208 kvar=0.726 conn=wye kv=0.23 
new load.772100000287356 bus1=1932.1.0 phases=1 kw=1.803 kvar=0.593 conn=wye kv=0.23 
new load.772100000283411 bus1=1507.1.0 phases=1 kw=2.209 kvar=0.726 conn=wye kv=0.23 
new load.772100001000573 bus1=1520.1.0 phases=1 kw=2.672 kvar=0.878 conn=wye kv=0.23 
new load.772100000284009 bus1=1047.1.0 phases=1 kw=1.669 kvar=0.549 conn=wye kv=0.23 
new load.772100000286873 bus1=1018.1.0 phases=1 kw=3.896 kvar=1.281 conn=wye kv=0.23 
new load.772100001000579 bus1=1048.1.0 phases=1 kw=4.167 kvar=1.37 conn=wye kv=0.23 
new load.772100000284561 bus1=1509.1.0 phases=1 kw=2.546 kvar=0.837 conn=wye kv=0.23 
new load.772100000284564 bus1=2029.1.0 phases=1 kw=2.256 kvar=0.741 conn=wye kv=0.23 
new load.772100000287486 bus1=1481.1.0 phases=1 kw=6.309 kvar=2.074 conn=wye kv=0.23 
new load.772100000284982 bus1=819.1.0 phases=1 kw=5.828 kvar=1.916 conn=wye kv=0.23 
new load.772100000283412 bus1=1366.1.0 phases=1 kw=2.117 kvar=0.696 conn=wye kv=0.23 
new load.772100000283081 bus1=1565.1.0 phases=1 kw=1.682 kvar=0.553 conn=wye kv=0.23 
new load.772100001007668 bus1=2318.1.0 phases=1 kw=2.923 kvar=0.961 conn=wye kv=0.23 
new load.772100000288287 bus1=1718.1.0 phases=1 kw=2.02 kvar=0.664 conn=wye kv=0.23 
new load.772100000287650 bus1=1348.1.0 phases=1 kw=3.526 kvar=1.159 conn=wye kv=0.23 
new load.772100000284950 bus1=2152.1.0 phases=1 kw=4.46 kvar=1.466 conn=wye kv=0.23 
new load.772100000283857 bus1=2195.1.0 phases=1 kw=2.19 kvar=0.72 conn=wye kv=0.23 
new load.772100000286254 bus1=2393.1.0 phases=1 kw=2.446 kvar=0.804 conn=wye kv=0.23 
new load.1064 bus1=565.1.0 phases=1 kw=2.392 kvar=1.793 conn=wye kv=0.23 
new load.772100000282698 bus1=1708.1.0 phases=1 kw=4.96 kvar=1.63 conn=wye kv=0.23 
new load.772100000354881 bus1=1135.1.0 phases=1 kw=6.658 kvar=2.188 conn=wye kv=0.23 
new load.772100000283080 bus1=2431.1.0 phases=1 kw=1.681 kvar=0.552 conn=wye kv=0.23 
new load.772100000287174 bus1=1617.1.0 phases=1 kw=2.669 kvar=0.877 conn=wye kv=0.23 
new load.772100000288249 bus1=2276.1.0 phases=1 kw=12.167 kvar=3.999 conn=wye kv=0.23 
new load.772100000287698 bus1=996.1.0 phases=1 kw=1.778 kvar=0.585 conn=wye kv=0.23 
new load.772100000288226 bus1=923.1.0 phases=1 kw=1.914 kvar=0.629 conn=wye kv=0.23 
new load.772100000282014 bus1=2450.1.0 phases=1 kw=6.017 kvar=1.978 conn=wye kv=0.23 
new load.772100001018400 bus1=1304.1.0 phases=1 kw=2.262 kvar=0.743 conn=wye kv=0.23 
new load.772100001000585 bus1=2246.1.0 phases=1 kw=3.436 kvar=1.129 conn=wye kv=0.23 
new load.772100000286086 bus1=2241.1.0 phases=1 kw=3.535 kvar=1.162 conn=wye kv=0.23 
new load.772100000285782 bus1=1244.1.0 phases=1 kw=1.827 kvar=0.6 conn=wye kv=0.23 
new load.772100001000615 bus1=2289.1.0 phases=1 kw=4.657 kvar=1.531 conn=wye kv=0.23 
new load.772100001016319 bus1=1224.1.0 phases=1 kw=4.933 kvar=1.622 conn=wye kv=0.23 
new load.772100000283079 bus1=1951.1.0 phases=1 kw=1.68 kvar=0.552 conn=wye kv=0.23 
...
solve
